
     RDKit          3D

 16 17  0  0  0  0  0  0  0  0999 V2000
   12.6365   38.2598   27.5232 O   0  0  0  0  0  0  0  0  0  0  0  0
   12.6221   37.1029   27.1671 C   0  0  0  0  0  0  0  0  0  0  0  0
   13.6845   36.3262   26.7476 N   0  0  0  0  0  0  0  0  0  0  0  0
   13.2630   35.0411   26.4204 C   0  0  0  0  0  0  0  0  0  0  0  0
   14.0410   33.9978   25.9661 C   0  0  0  0  0  0  0  0  0  0  0  0
   13.3962   32.7836   25.6984 C   0  0  0  0  0  0  0  0  0  0  0  0
   12.0055   32.6383   25.8874 C   0  0  0  0  0  0  0  0  0  0  0  0
   11.2310   33.7053   26.3484 C   0  0  0  0  0  0  0  0  0  0  0  0
   11.8904   34.8901   26.6046 C   0  0  0  0  0  0  0  0  0  0  0  0
   11.3777   36.1735   27.0886 C   0  0  0  0  0  0  0  0  0  0  0  0
   10.2335   36.4476   27.3661 O   0  0  0  0  0  0  0  0  0  0  0  0
   14.6303   36.6746   26.6964 H   0  0  0  0  0  0  0  0  0  0  0  0
   15.1103   34.1012   25.8182 H   0  0  0  0  0  0  0  0  0  0  0  0
   13.9756   31.9351   25.3379 H   0  0  0  0  0  0  0  0  0  0  0  0
   11.5321   31.6821   25.6708 H   0  0  0  0  0  0  0  0  0  0  0  0
   10.1607   33.6116   26.4995 H   0  0  0  0  0  0  0  0  0  0  0  0
  1  2  2  0
  2  3  1  0
  3  4  1  0
  4  5  2  0
  5  6  1  0
  6  7  2  0
  7  8  1  0
  8  9  2  0
  9 10  1  0
 10 11  2  0
 10  2  1  0
  9  4  1  0
  3 12  1  0
  5 13  1  0
  6 14  1  0
  7 15  1  0
  8 16  1  0
M  END
$$$$
