
     RDKit          3D

 16 17  0  0  0  0  0  0  0  0999 V2000
   15.9630   52.1770   38.1080 O   0  0  0  0  0  0  0  0  0  0  0  0
   17.3430   50.2050   37.9410 C   0  0  0  0  0  0  0  0  0  0  0  0
   18.2720   50.4450   40.0300 N   0  0  0  0  0  0  0  0  0  0  0  0
   18.2340   49.6710   38.8680 C   0  0  0  0  0  0  0  0  0  0  0  0
   16.7750   51.4040   38.5540 C   0  0  0  0  0  0  0  0  0  0  0  0
   17.4160   51.5270   39.9350 C   0  0  0  0  0  0  0  0  0  0  0  0
   17.1180   49.6320   36.7100 C   0  0  0  0  0  0  0  0  0  0  0  0
   18.9440   48.5220   38.5960 C   0  0  0  0  0  0  0  0  0  0  0  0
   17.8310   48.4660   36.4200 C   0  0  0  0  0  0  0  0  0  0  0  0
   18.7360   47.9170   37.3520 C   0  0  0  0  0  0  0  0  0  0  0  0
   17.1580   52.4220   40.7090 O   0  0  0  0  0  0  0  0  0  0  0  0
   -0.2896   -1.6865   -2.0344 H   0  0  0  0  0  0  0  0  0  0  0  0
    2.3101   -0.7249   -1.4668 H   0  0  0  0  0  0  0  0  0  0  0  0
    3.6224    0.8844   -0.0839 H   0  0  0  0  0  0  0  0  0  0  0  0
    2.4034    2.3536    1.5232 H   0  0  0  0  0  0  0  0  0  0  0  0
   -0.0459    2.1563    1.6797 H   0  0  0  0  0  0  0  0  0  0  0  0
  1  2  2  0
  2  3  1  0
  3  4  1  0
  4  5  2  0
  5  6  1  0
  6  7  2  0
  7  8  1  0
  8  9  2  0
  9 10  1  0
 10 11  2  0
 10  2  1  0
  9  4  1  0
  3 12  1  0
  5 13  1  0
  6 14  1  0
  7 15  1  0
  8 16  1  0
M  END
$$$$
