pose1.pdbqt
 OpenBabel08122617553D

 12 13  0  0  0  0  0  0  0  0999 V2000
   25.1080   53.1550   44.1200 O   0  0  0  0  0  0  0  0  0  0  0  0
   25.4840   50.9310   45.8980 O   0  0  0  0  0  0  0  0  0  0  0  0
   26.5010   52.5930   47.2460 N   0  0  0  0  0  0  0  0  0  0  0  0
   26.2240   54.4030   45.8570 C   0  0  0  0  0  0  0  0  0  0  0  0
   26.7200   53.9620   47.0800 C   0  0  0  0  0  0  0  0  0  0  0  0
   25.6470   53.2340   45.1970 C   0  0  0  0  0  0  0  0  0  0  0  0
   25.8510   52.0580   46.1480 C   0  0  0  0  0  0  0  0  0  0  0  0
   26.3130   55.7150   45.4470 C   0  0  0  0  0  0  0  0  0  0  0  0
   27.3360   54.8300   47.9560 C   0  0  0  0  0  0  0  0  0  0  0  0
   26.9350   56.6060   46.3240 C   0  0  0  0  0  0  0  0  0  0  0  0
   27.4410   56.1690   47.5670 C   0  0  0  0  0  0  0  0  0  0  0  0
   26.7870   52.0750   48.0700 H   0  0  0  0  0  0  0  0  0  0  0  0
  1  6  2  0  0  0  0
  2  7  2  0  0  0  0
  3 12  1  0  0  0  0
  4  5  1  0  0  0  0
  5  3  1  0  0  0  0
  5  9  2  0  0  0  0
  6  4  1  0  0  0  0
  6  7  1  0  0  0  0
  7  3  1  0  0  0  0
  8  4  2  0  0  0  0
  8 10  1  0  0  0  0
 10 11  2  0  0  0  0
 11  9  1  0  0  0  0
M  END
$$$$
