FeS_docked_ligand.pdb
 OpenBabel08192608313D

  4  5  0  0  0  0  0  0  0  0999 V2000
    9.6820    6.3810    1.5380 Fe  0  0  0  0  0  0  0  0  0  0  0  0
   10.9510    7.7220    3.6170 Fe  0  0  0  0  0  0  0  0  0  0  0  0
    8.7380    7.3770    3.2050 S   0  0  0  0  0  0  0  0  0  0  0  0
   11.8730    6.7600    1.8080 S   0  0  0  0  0  0  0  0  0  0  0  0
  1  4  1  0  0  0  0
  1  3  1  0  0  0  0
  1  2  1  0  0  0  0
  3  2  1  0  0  0  0
  4  2  1  0  0  0  0
M  END
$$$$
