@<TRIPOS>MOLECULE
Phthalazine
16 17 0 0 0
SMALL
USER_CHARGES

@<TRIPOS>ATOM
    1 C   1 C.ar     1    27.7700    -2.1470    52.8450 0.000
    2 C   2 C.ar     2    29.1150    -1.9880    53.1750 0.000
    3 C   3 C.ar     3    29.5920    -0.7420    53.5830 0.000
    4 C   4 C.ar     4    28.7230     0.3610    53.6650 0.000
    5 C   5 C.ar     5    29.1370     1.6290    54.0640 0.000
    6 N   6 N.ar     6    28.3060     2.6920    54.1440 0.000
    7 N   7 N.ar     7    26.9970     2.5380    53.8230 0.000
    8 C   8 C.ar     8    26.5510     1.3240    53.4290 0.000
    9 C   9 C.ar     9    27.3690     0.2020    53.3320 0.000
   10 C  10 C.ar    10    26.8980    -1.0590    52.9220 0.000
   11 H  11 H       11    27.4000    -3.1180    52.5270 0.000
   12 H  12 H       12    29.7920    -2.8360    53.1140 0.000
   13 H  13 H       13    30.6450    -0.6350    53.8370 0.000
   14 H  14 H       14    30.1650     1.8380    54.3380 0.000
   15 H  15 H       15    25.4940     1.2880    53.1910 0.000
   16 H  16 H       16    25.8520    -1.2000    52.6610 0.000
@<TRIPOS>BOND
    1    1    2   1
    2    2    3   1
    3    3    4   1
    4    4    5   1
    5    5    6   1
    6    6    7   1
    7    7    8   1
    8    8    9   1
    9    9   10   1
   10   10    1   1
   11    9    4   1
   12    1   11   1
   13    2   12   1
   14    3   13   1
   15    5   14   1
   16    8   15   1
   17   10   16   1
