
     RDKit          3D

 16 17  0  0  0  0  0  0  0  0999 V2000
   -1.8966    0.9846   -0.0328 C   0  0  0  0  0  0  0  0  0  0  0  0
   -2.1002   -0.3940   -0.0368 C   0  0  0  0  0  0  0  0  0  0  0  0
   -1.0073   -1.2623   -0.0180 C   0  0  0  0  0  0  0  0  0  0  0  0
    0.3044   -0.7542    0.0051 C   0  0  0  0  0  0  0  0  0  0  0  0
    1.4349   -1.5665    0.0245 C   0  0  0  0  0  0  0  0  0  0  0  0
    2.6971   -1.0844    0.0467 N   0  0  0  0  0  0  0  0  0  0  0  0
    2.8954    0.2580    0.0506 N   0  0  0  0  0  0  0  0  0  0  0  0
    1.8265    1.0846    0.0322 C   0  0  0  0  0  0  0  0  0  0  0  0
    0.5095    0.6339    0.0091 C   0  0  0  0  0  0  0  0  0  0  0  0
   -0.5993    1.4997   -0.0099 C   0  0  0  0  0  0  0  0  0  0  0  0
   -2.7491    1.6595   -0.0474 H   0  0  0  0  0  0  0  0  0  0  0  0
   -3.1115   -0.7935   -0.0545 H   0  0  0  0  0  0  0  0  0  0  0  0
   -1.1840   -2.3357   -0.0214 H   0  0  0  0  0  0  0  0  0  0  0  0
    1.3654   -2.6488    0.0229 H   0  0  0  0  0  0  0  0  0  0  0  0
    2.0729    2.1407    0.0368 H   0  0  0  0  0  0  0  0  0  0  0  0
   -0.4581    2.5784   -0.0071 H   0  0  0  0  0  0  0  0  0  0  0  0
  1  2  1  0
  2  3  2  0
  3  4  1  0
  4  5  2  0
  5  6  1  0
  6  7  2  0
  7  8  1  0
  8  9  2  0
  9 10  1  0
 10  1  2  0
  9  4  1  0
  1 11  1  0
  2 12  1  0
  3 13  1  0
  5 14  1  0
  8 15  1  0
 10 16  1  0
M  END
$$$$
