
     RDKit          3D

 16 17  0  0  0  0  0  0  0  0999 V2000
   16.5210   51.8120   40.5670 O   0  0  0  0  0  0  0  0  0  0  0  0
   17.9590   53.6070   38.8470 C   0  0  0  0  0  0  0  0  0  0  0  0
   19.4420   53.6780   40.6940 N   0  0  0  0  0  0  0  0  0  0  0  0
   18.3270   52.2480   42.1060 C   0  0  0  0  0  0  0  0  0  0  0  0
   19.4440   53.0630   41.9470 C   0  0  0  0  0  0  0  0  0  0  0  0
   17.5590   52.3500   40.8670 C   0  0  0  0  0  0  0  0  0  0  0  0
   18.3300   53.3050   39.9590 C   0  0  0  0  0  0  0  0  0  0  0  0
   18.0890   51.5270   43.2560 C   0  0  0  0  0  0  0  0  0  0  0  0
   20.3820   53.1920   42.9490 C   0  0  0  0  0  0  0  0  0  0  0  0
   19.0310   51.6480   44.2790 C   0  0  0  0  0  0  0  0  0  0  0  0
   20.1670   52.4710   44.1280 O   0  0  0  0  0  0  0  0  0  0  0  0
   20.1680   54.3120   40.3790 H   0  0  0  0  0  0  0  0  0  0  0  0
    0.0000    0.0000    0.0000 H   0  0  0  0  0  0  0  0  0  0  0  0
    0.0000    0.0000    0.0000 H   0  0  0  0  0  0  0  0  0  0  0  0
    0.0000    0.0000    0.0000 H   0  0  0  0  0  0  0  0  0  0  0  0
    0.0000    0.0000    0.0000 H   0  0  0  0  0  0  0  0  0  0  0  0
  1  2  2  0
  2  3  1  0
  3  4  1  0
  4  5  2  0
  5  6  1  0
  6  7  2  0
  7  8  1  0
  8  9  2  0
  9 10  1  0
 10 11  2  0
 10  2  1  0
  9  4  1  0
  3 12  1  0
  5 13  1  0
  6 14  1  0
  7 15  1  0
  8 16  1  0
M  END
$$$$
