
     RDKit          3D

 18 18  0  0  0  0  0  0  0  0999 V2000
   -2.8510  -15.1000  -19.3360 N   0  0  0  0  0  0  0  0  0  0  0  0
   -2.1350  -15.6410  -18.3830 C   0  0  0  0  0  0  0  0  0  0  0  0
   -1.7530  -16.8860  -18.4960 N   0  0  0  0  0  0  0  0  0  0  0  0
   -1.7960  -14.8760  -17.1720 C   0  0  0  0  0  0  0  0  0  0  0  0
   -1.9510  -13.5070  -17.1350 C   0  0  0  0  0  0  0  0  0  0  0  0
   -1.6700  -12.8090  -15.9750 C   0  0  0  0  0  0  0  0  0  0  0  0
   -1.2370  -13.4700  -14.8520 C   0  0  0  0  0  0  0  0  0  0  0  0
   -1.0420  -14.8110  -14.8940 C   0  0  0  0  0  0  0  0  0  0  0  0
   -1.3310  -15.5190  -16.0410 C   0  0  0  0  0  0  0  0  0  0  0  0
   -3.1690  -15.6000  -20.1730 H   0  0  0  0  0  0  0  0  0  0  0  0
   -3.1740  -14.1380  -19.2970 H   0  0  0  0  0  0  0  0  0  0  0  0
   -2.0500  -17.4520  -19.2880 H   0  0  0  0  0  0  0  0  0  0  0  0
   -1.1940  -17.3470  -17.7960 H   0  0  0  0  0  0  0  0  0  0  0  0
   -2.2920  -12.9560  -18.0100 H   0  0  0  0  0  0  0  0  0  0  0  0
   -1.7400  -11.7220  -15.9610 H   0  0  0  0  0  0  0  0  0  0  0  0
   -1.0670  -12.9270  -13.9250 H   0  0  0  0  0  0  0  0  0  0  0  0
   -0.6420  -15.3380  -14.0320 H   0  0  0  0  0  0  0  0  0  0  0  0
   -1.2310  -16.6020  -16.0300 H   0  0  0  0  0  0  0  0  0  0  0  0
  1  2  2  0
  2  3  1  0
  2  4  1  0
  4  5  2  0
  5  6  1  0
  6  7  2  0
  7  8  1  0
  8  9  2  0
  9  4  1  0
  1 10  1  0
  1 11  1  0
  3 12  1  0
  3 13  1  0
  5 14  1  0
  6 15  1  0
  7 16  1  0
  8 17  1  0
  9 18  1  0
M  CHG  1   1   1
M  END
