
     RDKit          3D

 16 17  0  0  0  0  0  0  0  0999 V2000
   15.3604   35.0634   27.0340 O   0  0  0  0  0  0  0  0  0  0  0  0
   14.1359   34.9670   27.0956 C   0  0  0  0  0  0  0  0  0  0  0  0
   13.3501   33.8394   27.3102 N   0  0  0  0  0  0  0  0  0  0  0  0
   12.0587   34.0620   26.8105 C   0  0  0  0  0  0  0  0  0  0  0  0
   11.0806   33.1029   26.5877 C   0  0  0  0  0  0  0  0  0  0  0  0
    9.9366   33.5712   25.8629 C   0  0  0  0  0  0  0  0  0  0  0  0
    9.7277   34.9272   25.5029 C   0  0  0  0  0  0  0  0  0  0  0  0
   10.7006   35.8750   25.8432 C   0  0  0  0  0  0  0  0  0  0  0  0
   11.8889   35.3813   26.3982 C   0  0  0  0  0  0  0  0  0  0  0  0
   13.1510   36.0795   26.6791 C   0  0  0  0  0  0  0  0  0  0  0  0
   13.3625   37.2839   26.6012 O   0  0  0  0  0  0  0  0  0  0  0  0
   13.3702   33.7298   28.3470 H   0  0  0  0  0  0  0  0  0  0  0  0
   11.2157   32.0177   26.7981 H   0  0  0  0  0  0  0  0  0  0  0  0
    9.2404   32.8041   25.5394 H   0  0  0  0  0  0  0  0  0  0  0  0
    8.7706   35.1959   25.0318 H   0  0  0  0  0  0  0  0  0  0  0  0
   10.5638   36.9398   25.6303 H   0  0  0  0  0  0  0  0  0  0  0  0
  1  2  2  0
  2  3  1  0
  3  4  1  0
  4  5  2  0
  5  6  1  0
  6  7  2  0
  7  8  1  0
  8  9  2  0
  9 10  1  0
 10 11  2  0
 10  2  1  0
  9  4  1  0
  3 12  1  0
  5 13  1  0
  6 14  1  0
  7 15  1  0
  8 16  1  0
M  END
$$$$
